Version 4
SHEET 1 1980 1328
WIRE 592 128 576 128
WIRE 0 160 0 112
WIRE 592 160 544 160
WIRE 512 192 416 192
WIRE 592 192 512 192
WIRE 512 208 512 192
WIRE -448 224 -480 224
WIRE -192 224 -224 224
WIRE 1744 256 816 256
WIRE -768 272 -768 224
WIRE -448 288 -576 288
WIRE 0 288 0 240
WIRE 0 288 -224 288
WIRE 992 288 816 288
WIRE 0 320 0 288
WIRE 512 320 512 288
WIRE 1104 320 816 320
WIRE 1664 320 1104 320
WIRE -448 352 -496 352
WIRE -80 352 -224 352
WIRE 1280 352 816 352
WIRE 1360 384 816 384
WIRE 1600 384 1360 384
WIRE 416 400 416 192
WIRE -448 416 -496 416
WIRE -192 416 -224 416
WIRE 368 416 272 416
WIRE 1440 416 816 416
WIRE 1520 416 1440 416
WIRE -768 432 -768 352
WIRE -992 448 -992 368
WIRE -880 448 -880 352
WIRE -192 448 -192 416
WIRE -80 448 -80 352
WIRE 0 448 0 400
WIRE 0 448 -80 448
WIRE 864 448 816 448
WIRE 992 448 992 288
WIRE 1280 448 1280 352
WIRE 1440 448 1440 416
WIRE 1600 448 1600 384
WIRE 1744 448 1744 256
WIRE 272 480 272 416
WIRE 0 496 0 448
WIRE 368 496 368 464
WIRE 1104 528 1104 320
WIRE 1360 560 1360 384
WIRE 1664 560 1664 320
WIRE -192 576 -192 512
WIRE 416 592 416 480
WIRE 0 608 0 560
WIRE -992 624 -992 528
WIRE -880 624 -880 512
WIRE -768 624 -768 496
WIRE -576 624 -576 288
WIRE -80 624 -80 448
WIRE -80 624 -576 624
WIRE 272 624 272 560
WIRE 992 672 992 512
WIRE 1104 672 1104 592
WIRE 1104 672 992 672
WIRE 1152 672 1104 672
WIRE 1280 672 1280 512
WIRE 1280 672 1216 672
WIRE 1360 672 1360 624
WIRE 1360 672 1280 672
WIRE 1440 672 1440 512
WIRE 1440 672 1360 672
WIRE 1600 672 1600 512
WIRE 1664 672 1664 624
WIRE 1664 672 1600 672
WIRE 1744 672 1744 512
WIRE 1744 672 1664 672
WIRE 1104 768 1104 672
WIRE 1280 768 1280 672
WIRE 1520 768 1520 416
WIRE 1744 768 1744 672
WIRE 1104 928 1104 848
WIRE 1280 928 1280 848
WIRE 1520 928 1520 848
WIRE 1744 1024 1744 848
WIRE 1104 1104 1104 992
WIRE 1280 1104 1280 992
WIRE 1520 1104 1520 992
WIRE 1104 1248 1104 1168
WIRE 1280 1248 1280 1168
WIRE 1520 1248 1520 1168
WIRE 1744 1248 1744 1088
FLAG -992 624 0
FLAG 1520 1248 0
FLAG -880 624 0
FLAG -768 624 0
FLAG -992 368 Vcc
FLAG -880 352 Vcc
FLAG -768 224 Vcc
FLAG 1104 1248 0
FLAG 1280 1248 0
FLAG 1744 1248 0
FLAG -480 224 0
FLAG -192 224 Vcc
FLAG -192 576 0
FLAG 0 608 0
FLAG 0 112 Vcc
FLAG -496 416 Vcc
FLAG -496 352 CLK
FLAG 864 448 R
FLAG 576 128 R
FLAG 544 160 0
FLAG 512 320 0
FLAG 272 624 0
FLAG 368 496 0
FLAG 416 592 CLK
FLAG 416 192 PRZYCISK
SYMBOL voltage -992 432 R0
WINDOW 123 0 0 Left 0
WINDOW 39 0 0 Left 0
SYMATTR InstName V1
SYMATTR Value 9
SYMBOL res -784 256 R0
SYMATTR InstName R1
SYMATTR Value 1.2k
SYMBOL cap -896 448 R0
SYMATTR InstName C1
SYMATTR Value 100n
SYMBOL LED -784 432 R0
SYMATTR InstName D10
SYMBOL res 1088 752 R0
SYMATTR InstName R4
SYMATTR Value 1.5k
SYMBOL diode 976 448 R0
SYMATTR InstName D1
SYMATTR Value 1N4148
SYMBOL diode 1088 528 R0
SYMATTR InstName D2
SYMATTR Value 1N4148
SYMBOL diode 1264 448 R0
SYMATTR InstName D4
SYMATTR Value 1N4148
SYMBOL diode 1344 560 R0
SYMATTR InstName D5
SYMATTR Value 1N4148
SYMBOL diode 1424 448 R0
SYMATTR InstName D6
SYMATTR Value 1N4148
SYMBOL diode 1584 448 R0
SYMATTR InstName D7
SYMATTR Value 1N4148
SYMBOL diode 1648 560 R0
SYMATTR InstName D8
SYMATTR Value 1N4148
SYMBOL diode 1728 448 R0
SYMATTR InstName D9
SYMATTR Value 1N4148
SYMBOL res 1264 752 R0
SYMATTR InstName R5
SYMATTR Value 1.8k
SYMBOL res 1504 752 R0
SYMATTR InstName R6
SYMATTR Value 2.2k
SYMBOL res 1728 752 R0
SYMATTR InstName R7
SYMATTR Value 2.7k
SYMBOL diode 1216 656 R90
WINDOW 0 0 32 VBottom 1
WINDOW 3 32 32 VTop 1
SYMATTR InstName D3
SYMATTR Value 1N4148
SYMBOL LED 1088 928 R0
SYMATTR InstName D12
SYMATTR Value QTLP690C
SYMBOL Misc\\NE555 -336 320 R0
SYMATTR InstName U2
SYMBOL res -16 144 R0
SYMATTR InstName R2
SYMATTR Value 220
SYMBOL res -16 304 R0
SYMATTR InstName R3
SYMATTR Value 1.2k
SYMBOL cap -16 496 R0
SYMATTR InstName C2
SYMATTR Value 100n
SYMBOL cap -208 448 R0
SYMATTR InstName C3
SYMATTR Value 100n
SYMBOL CD4000\\CD4017B 704 64 R0
SYMATTR InstName U1
SYMATTR SpiceLine VDD=9  SPEED=1.0  TRIPDT=5e-9
SYMBOL LED 1728 1024 R0
SYMATTR InstName D11
SYMATTR Value QTLP690C
SYMBOL LED 1088 1104 R0
SYMATTR InstName D13
SYMATTR Value QTLP690C
SYMBOL LED 1264 928 R0
SYMATTR InstName D14
SYMATTR Value QTLP690C
SYMBOL LED 1264 1104 R0
SYMATTR InstName D15
SYMATTR Value QTLP690C
SYMBOL LED 1504 928 R0
SYMATTR InstName D16
SYMATTR Value QTLP690C
SYMBOL LED 1504 1104 R0
SYMATTR InstName D17
SYMATTR Value QTLP690C
SYMBOL res 496 192 R0
SYMATTR InstName R8
SYMATTR Value 15k
SYMBOL sw 416 496 M180
SYMATTR InstName S1
SYMBOL voltage 272 464 R0
WINDOW 3 -29 -207 VRight 1
WINDOW 123 0 0 Left 0
WINDOW 39 0 0 Left 0
SYMATTR Value PULSE(0 1 0 10n 10n 100u 1m)
SYMATTR InstName V2
TEXT -1016 56 Left 2 !.tran 10m startup
TEXT -1016 88 Left 2 !.lib CD4000.lib
TEXT -1016 120 Left 2 !.model SW SW(Ron=10 Roff=1e6 Vt=.5 Vh=-0.4
